/*--------------------------------*- C++ -*----------------------------------*\
| =========                 |                                                 |
| \\      /  F ield         | OpenFOAM: The Open Source CFD Toolbox           |
|  \\    /   O peration     | Version:  2.3.0                                 |
|   \\  /    A nd           | Web:      www.OpenFOAM.org                      |
|    \\/     M anipulation  |                                                 |
\*---------------------------------------------------------------------------*/
FoamFile
{
    version     2.0;
    format      ascii;
    class       polyBoundaryMesh;
    location    "constant/polyMesh";
    object      boundary;
}
// * * * * * * * * * * * * * * * * * * * * * * * * * * * * * * * * * * * * * //

4
(
    walls
    {
        type            wall;
        inGroups        1(wall);
        nFaces          2;
        startFace       99;
    }
    inlet
    {
        type            cyclic;
        inGroups        1(cyclic);
        nFaces          100;
        startFace       101;
        matchTolerance  0.0001;
        transform       unknown;
        neighbourPatch  outlet;
    }
    outlet
    {
        type            cyclic;
        inGroups        1(cyclic);
        nFaces          100;
        startFace       201;
        matchTolerance  0.0001;
        transform       unknown;
        neighbourPatch  inlet;
    }
    sides
    {
        type            empty;
        inGroups        1(empty);
        nFaces          200;
        startFace       301;
    }
)

// ************************************************************************* //
